-------------------------------------------------------
          Amber 24 PMEMD                              2024
          -------------------------------------------------------

  [-O]verwriting output

File Assignments:

 Here is the input file:

61K GlnBP benchmark

 &cntrl
  imin = 0, irest = 1,
  nstlim = 1000000, dt = 0.002,
  ntx = 5,
  ntt = 1, temp0 = 300.0, tautp = 1.0,
  ntb = 2, ntp = 1, pres0 = 1.0, taup = 5.0,
  ntc = 2, ntf = 2,
  ioutfm = 1, ntpr = 10000, ntwr = 25000, ntwe = 0, ntwx = 25000,
  iwrap = 1,

  ! for pmemd.cuda
  watnam = 'TIP3', OWTNM = 'OH2'
 /
 &ewald
 /

Note: ig = -1. Setting random seed to   812937 based on wallclock time in
      microseconds.

--------------------------------------------------------------------------------
   1.  RESOURCE   USE:
--------------------------------------------------------------------------------

 getting box info from netcdf restart file
 NATOM  =   61153 NTYPES =      37 NBONH =   59380 MBONA  =    1803
 NTHETH =   23270 MTHETA =    2434 NPHIH =    6740 MPHIA  =    3117
 NHPARM =       0 NPARM  =       0 NNB   =   96461 NRES   =   19427
 NBONA  =    1803 NTHETA =    2434 NPHIA =    3117 NUMBND =      70
 NUMANG =     157 NPTRA  =     182 NATYP =       1 NPHB   =       0
 IFBOX  =       1 NMXRS  =      24 IFCAP =       0 NEXTRA =       0
 NCOPY  =       0

     BOX TYPE: RECTILINEAR

--------------------------------------------------------------------------------
   2.  CONTROL  DATA  FOR  THE  RUN
--------------------------------------------------------------------------------

General flags:
     imin    =       0, nmropt  =       0

Nature and format of input:
     ntx     =       5, irest   =       1, ntrx    =       1

Nature and format of output:
     ntxo    =       2, ntpr    =   10000, ntrx    =       1, ntwr    =   25000
     iwrap   =       1, ntwx    =   25000, ntwv    =       0, ntwe    =       0
     ioutfm  =       1, ntwprt  =       0, idecomp =       0, rbornstat=      0

Potential function:
     ntf     =       2, ntb     =       2, igb     =       0, nsnb    =      25
     ipol    =       0, gbsa    =       0, iesp    =       0
     dielc   =   1.00000, cut     =   8.00000, intdiel =   1.00000

Frozen or restrained atoms:
     ibelly  =       0, ntr     =       0

Molecular dynamics:
     nstlim  =   1000000, nscm    =      1000, nrespa  =         1
     t       =   0.00000, dt      =   0.00200, vlimit  =  -1.00000

Berendsen (weak-coupling) temperature regulation:
     temp0   = 300.00000, tempi   =   0.00000, tautp   =   1.00000

Pressure regulation:
     ntp     =       1
     pres0   =   1.00000, comp    =  44.60000, taup    =   5.00000

SHAKE:
     ntc     =       2, jfastw  =       0
     tol     =   0.00001

Ewald parameters:
     verbose =       0, ew_type =       0, nbflag  =       1, use_pme =       1
     vdwmeth =       1, eedmeth =       1, netfrc  =       1
     Box X =   81.858   Box Y =   93.838   Box Z =   77.865
     Alpha =   90.000   Beta  =   90.000   Gamma =   90.000
     NFFT1 =   84       NFFT2 =   96       NFFT3 =   80
     Cutoff=    8.000   Tol   =0.100E-04
     Ewald Coefficient =  0.34864
     Interpolation order =    4

--------------------------------------------------------------------------------
   3.  ATOMIC COORDINATES AND VELOCITIES
--------------------------------------------------------------------------------

 begin time read from input coords =    40.000 ps

 Number of triangulated 3-point waters found:    19199

     Sum of charges from parm topology file =   0.00000000
     Forcing neutrality...

--------------------------------------------------------------------------------
   4.  RESULTS
 NSTEP =    10000   TIME(PS) =      60.000  TEMP(K) =   301.05  PRESS =    28.0
 Etot   =   -157581.6447  EKtot   =     37113.8008  EPtot      =   -194695.4455
 BOND   =       714.0898  ANGLE   =      1739.6432  DIHED      =      1170.0368
 UB     =       238.3783  IMP     =       125.6235  CMAP       =      -284.5885
 1-4 NB =       612.5553  1-4 EEL =     11478.4369  VDWAALS    =     17527.7320
 EELEC  =   -228017.3527  EHBOND  =         0.0000  RESTRAINT  =         0.0000
 EKCMT  =     17404.4155  VIRIAL  =     17042.7296  VOLUME     =    598630.9248
                                                    Density    =         1.0292
 ------------------------------------------------------------------------------

      A V E R A G E S   O V E R     100 S T E P S

 NSTEP =  1000000   TIME(PS) =    2040.000  TEMP(K) =   300.06  PRESS =   -10.4
 Etot   =   -157646.6927  EKtot   =     36992.1054  EPtot      =   -194638.7981
 BOND   =       679.3022  ANGLE   =      1711.0252  DIHED      =      1160.6256
 UB     =       228.4729  IMP     =       118.1145  CMAP       =      -312.6887
 1-4 NB =       629.5733  1-4 EEL =     11314.5266  VDWAALS    =     17586.6702
 EELEC  =   -227754.4198  EHBOND  =         0.0000  RESTRAINT  =         0.0000
 EKCMT  =     17275.4925  VIRIAL  =     17409.3537  VOLUME     =    597848.7056
                                                    Density    =         1.0305
 ------------------------------------------------------------------------------

      R M S  F L U C T U A T I O N S

 NSTEP =  1000000   TIME(PS) =    2040.000  TEMP(K) =     0.86  PRESS =   107.1
 Etot   =        50.8364  EKtot   =       105.7293  EPtot      =       116.7377
 BOND   =        22.2854  ANGLE   =        32.5979  DIHED      =        17.1186
 UB     =         6.3325  IMP     =         7.2521  CMAP       =        11.5105
 1-4 NB =        10.4743  1-4 EEL =        48.1354  VDWAALS    =       178.2657
 EELEC  =       241.6265  EHBOND  =         0.0000  RESTRAINT  =         0.0000
 EKCMT  =        92.5276  VIRIAL  =      1388.0906  VOLUME     =       288.5261
                                                    Density    =         0.0005
 ------------------------------------------------------------------------------
